/*---------------------------------------------------------------------------*\
| =========                 |                                                 |
| \\      /  F ield         | OpenFOAM: The Open Source CFD Toolbox           |
|  \\    /   O peration     | Version:  1.4                                   |
|   \\  /    A nd           | Web:      http://www.openfoam.org               |
|    \\/     M anipulation  |                                                 |
\*---------------------------------------------------------------------------*/


FoamFile
{
    version         2.0;
    format          ascii;

    root            "";
    case            "";
    instance        "";
    local           "";

    class           dictionary;
    object          scalarTransportProperties;
}

// * * * * * * * * * * * * * * * * * * * * * * * * * * * * * * * * * * * * * //

//===========================================================================//
// sub-models & settings

scalarTransportModel generalManualReaction;

generalManualProps
{
    ScT 0.7; //optional
    PrT 0.7; //optional

    //in case the user does not want to generate a separate field,
    //the volumetric heat capacity can be set here (as a global constant)
    cpVolumetric 1196; //this is the mixture density times the heat capacity
                       //must have dimensions [J/K/(m_voidspace)³]
                       //will only be used if cpVolumetricFieldName, or updateMixtureProperties = false

//    cpVolumetricFieldName   "cpRho"; 
    rhoMixFieldName         "rhoMix"; 

    //any concentration fields MUST be first to have correct numbering
    //Finally, you MUST provide the name of the temperature fiel
    eulerianFields
    (
        eductA      //0
        eductB      //1
        product     //2
        SuperSatField //3 
        T
    );

    //set the fields that should not be evolved but simply reset
    SuperSatField_normalizeFieldID 2;           //this is the index of the field. Thus, this is the product
    SuperSatField_normalizeValue   1.2345;     //this is the value to MULTIPLY the field with!

    ReactionParameters    
    {
        reactionRateFieldName   "myReactionRate"; //this is optional: the name of the reaction rate
        reactionRateConstant    dimval [ 0 0 -1 0 0 0 0 ]  1.2345; //must ALWAYS have inverse time units, since concentration is dim.less
        reactants
        (
            eductA
            product
        );
        exponents
        (
             1
             0
        ); 
        stoichiometricFactors
        (
            -1
             1
        );
    }


    fvOptionseductA{};
    fvOptionseductB{};
    fvOptionsproduct{};
    fvOptionsSuperSatField {};
    fvOptionsT {};
};
// ************************************************************************* //
